U04
  -OEChem-12290723543D

 41 42  0     0  0  0  0  0  0999 V2000
    2.5722   -2.0522    1.8839 C   0  0  0  0  0  0  0  0  0  0  0  0
    2.2296   -0.5597    0.0151 C   0  0  0  0  0  0  0  0  0  0  0  0
    8.3394   -3.4331   -0.9386 C   0  0  0  0  0  0  0  0  0  0  0  0
    7.6961   -5.7458   -0.6644 C   0  0  0  0  0  0  0  0  0  0  0  0
    1.5046   -1.4567    2.5553 C   0  0  0  0  0  0  0  0  0  0  0  0
    1.1619    0.0360    0.6866 C   0  0  0  0  0  0  0  0  0  0  0  0
    7.0882   -3.1498   -1.4858 C   0  0  0  0  0  0  0  0  0  0  0  0
    6.4446   -5.4624   -1.2117 C   0  0  0  0  0  0  0  0  0  0  0  0
    2.9348   -1.6038    0.6137 C   0  0  0  0  0  0  0  0  0  0  0  0
    8.6434   -4.7311   -0.5279 C   0  0  0  0  0  0  0  0  0  0  0  0
    0.7993   -0.4127    1.9567 C   0  0  0  0  0  0  0  0  0  0  0  0
    6.1407   -4.1643   -1.6222 C   0  0  0  0  0  0  0  0  0  0  0  0
   -1.4206    0.7811    2.0530 C   0  0  0  0  0  0  0  0  0  0  0  0
    4.0760   -2.2411   -0.1045 C   0  0  0  0  0  0  0  0  0  0  0  0
    9.9817   -5.0341    0.0555 C   0  0  0  0  0  0  0  0  0  0  0  0
   -1.8765    0.2895    0.8288 N   0  0  0  0  0  0  0  0  0  0  0  0
   -0.2822    0.1900    2.6363 N   0  0  0  0  0  0  0  0  0  0  0  0
    3.6539   -3.3888   -0.9443 N   0  0  0  0  0  0  0  0  0  0  0  0
   -2.1457    1.8022    2.6590 N   0  3  0  0  0  0  0  0  0  0  0  0
    4.6978   -2.6439   -3.1765 O   0  0  0  0  0  0  0  0  0  0  0  0
    4.0399   -5.0501   -2.8578 O   0  0  0  0  0  0  0  0  0  0  0  0
   10.8069   -3.9477    0.1271 F   0  0  0  0  0  0  0  0  0  0  0  0
    9.9251   -5.5222    1.3301 F   0  0  0  0  0  0  0  0  0  0  0  0
   10.6692   -5.9686   -0.6638 F   0  0  0  0  0  0  0  0  0  0  0  0
    4.5566   -3.8061   -2.3201 S   0  0  0  0  0  0  0  0  0  0  0  0
    3.1166   -2.8650    2.3577 H   0  0  0  0  0  0  0  0  0  0  0  0
    2.5054   -0.2041   -0.9742 H   0  0  0  0  0  0  0  0  0  0  0  0
    9.0717   -2.6367   -0.8371 H   0  0  0  0  0  0  0  0  0  0  0  0
    7.9245   -6.7602   -0.3486 H   0  0  0  0  0  0  0  0  0  0  0  0
    1.2268   -1.8108    3.5445 H   0  0  0  0  0  0  0  0  0  0  0  0
    0.6168    0.8490    0.2151 H   0  0  0  0  0  0  0  0  0  0  0  0
    6.8627   -2.1355   -1.8045 H   0  0  0  0  0  0  0  0  0  0  0  0
    5.7140   -6.2603   -1.3147 H   0  0  0  0  0  0  0  0  0  0  0  0
    4.5821   -1.5110   -0.7535 H   0  0  0  0  0  0  0  0  0  0  0  0
    4.8381   -2.5972    0.6044 H   0  0  0  0  0  0  0  0  0  0  0  0
   -1.4041   -0.4804    0.3612 H   0  0  0  0  0  0  0  0  0  0  0  0
   -2.6953    0.6856    0.3736 H   0  0  0  0  0  0  0  0  0  0  0  0
   -0.2320    0.2425    3.6621 H   0  0  0  0  0  0  0  0  0  0  0  0
    3.1037   -4.1029   -0.4639 H   0  0  0  0  0  0  0  0  0  0  0  0
   -3.0040    2.1491    2.2367 H   0  0  0  0  0  0  0  0  0  0  0  0
   -1.9002    2.1829    3.5678 H   0  0  0  0  0  0  0  0  0  0  0  0
  1  5  1  0  0  0  0
  1  9  2  0  0  0  0
  2  6  2  0  0  0  0
  2  9  1  0  0  0  0
  3  7  2  0  0  0  0
  3 10  1  0  0  0  0
  4  8  1  0  0  0  0
  4 10  2  0  0  0  0
  5 11  2  0  0  0  0
  6 11  1  0  0  0  0
  7 12  1  0  0  0  0
  8 12  2  0  0  0  0
  9 14  1  0  0  0  0
 10 15  1  0  0  0  0
 11 17  1  0  0  0  0
 12 25  1  0  0  0  0
 13 16  1  0  0  0  0
 13 17  1  0  0  0  0
 13 19  2  0  0  0  0
 14 18  1  0  0  0  0
 15 22  1  0  0  0  0
 15 23  1  0  0  0  0
 15 24  1  0  0  0  0
 18 25  1  0  0  0  0
 20 25  2  0  0  0  0
 21 25  2  0  0  0  0
  1 26  1  0  0  0  0
  2 27  1  0  0  0  0
  3 28  1  0  0  0  0
  4 29  1  0  0  0  0
  5 30  1  0  0  0  0
  6 31  1  0  0  0  0
  7 32  1  0  0  0  0
  8 33  1  0  0  0  0
 14 34  1  0  0  0  0
 14 35  1  0  0  0  0
 16 36  1  0  0  0  0
 16 37  1  0  0  0  0
 17 38  1  0  0  0  0
 18 39  1  0  0  0  0
 19 40  1  0  0  0  0
 19 41  1  0  0  0  0
M  CHG  1  19   1
M  END
