U11
  -OEChem-12290723543D

 21 22  0     0  0  0  0  0  0999 V2000
   -0.8978    0.5723   -0.2178 C   0  0  0  0  0  0  0  0  0  0  0  0
   -2.1290   -0.0812   -0.2968 C   0  0  0  0  0  0  0  0  0  0  0  0
   -0.8109    1.9431   -0.4149 C   0  0  0  0  0  0  0  0  0  0  0  0
   -4.5220    2.6004   -1.0543 C   0  0  0  0  0  0  0  0  0  0  0  0
   -3.2219    2.0564   -0.7823 C   0  0  0  0  0  0  0  0  0  0  0  0
   -3.2838    0.6742   -0.5801 C   0  0  0  0  0  0  0  0  0  0  0  0
   -1.9584    2.6896   -0.6955 C   0  0  0  0  0  0  0  0  0  0  0  0
   -5.5120    1.6466   -1.0528 C   0  0  0  0  0  0  0  0  0  0  0  0
   -6.8920    1.9226   -1.2949 C   0  0  0  0  0  0  0  0  0  0  0  0
   -7.3193    3.1809   -1.5484 N   0  0  0  0  0  0  0  0  0  0  0  0
   -7.8155    0.9340   -1.2810 N   0  3  0  0  0  0  0  0  0  0  0  0
   -4.8996    0.0899   -0.7258 S   0  0  0  0  0  0  0  0  0  0  0  0
   -1.7285    4.7544   -0.9774 I   0  0  0  0  0  0  0  0  0  0  0  0
   -0.0001   -0.0001   -0.0001 H   0  0  0  0  0  0  0  0  0  0  0  0
   -2.1874   -1.1547   -0.1412 H   0  0  0  0  0  0  0  0  0  0  0  0
    0.1654    2.4173   -0.3450 H   0  0  0  0  0  0  0  0  0  0  0  0
   -4.7277    3.6465   -1.2437 H   0  0  0  0  0  0  0  0  0  0  0  0
   -6.6559    3.9474   -1.5624 H   0  0  0  0  0  0  0  0  0  0  0  0
   -8.2966    3.3941   -1.7158 H   0  0  0  0  0  0  0  0  0  0  0  0
   -7.5307   -0.0223   -1.1011 H   0  0  0  0  0  0  0  0  0  0  0  0
   -8.7983    1.1129   -1.4561 H   0  0  0  0  0  0  0  0  0  0  0  0
  1  2  1  0  0  0  0
  1  3  2  0  0  0  0
  2  6  2  0  0  0  0
  3  7  1  0  0  0  0
  4  5  1  0  0  0  0
  4  8  2  0  0  0  0
  5  6  1  0  0  0  0
  5  7  2  0  0  0  0
  6 12  1  0  0  0  0
  7 13  1  0  0  0  0
  8  9  1  0  0  0  0
  8 12  1  0  0  0  0
  9 10  1  0  0  0  0
  9 11  2  0  0  0  0
  1 14  1  0  0  0  0
  2 15  1  0  0  0  0
  3 16  1  0  0  0  0
  4 17  1  0  0  0  0
 10 18  1  0  0  0  0
 10 19  1  0  0  0  0
 11 20  1  0  0  0  0
 11 21  1  0  0  0  0
M  CHG  1  11   1
M  END
