U12
  -OEChem-12290723543D

 53 56  0     0  0  0  0  0  0999 V2000
    5.4769    6.5778    5.7642 C   0  0  0  0  0  0  0  0  0  0  0  0
    5.5954    7.7954    3.6807 C   0  0  0  0  0  0  0  0  0  0  0  0
    6.2746    7.5453    6.3750 C   0  0  0  0  0  0  0  0  0  0  0  0
    6.3932    8.7629    4.2916 C   0  0  0  0  0  0  0  0  0  0  0  0
    5.1373    6.7028    4.4171 C   0  0  0  0  0  0  0  0  0  0  0  0
    6.7326    8.6379    5.6388 C   0  0  0  0  0  0  0  0  0  0  0  0
    7.6076   10.9861    5.9270 C   0  0  0  0  0  0  0  0  0  0  0  0
    1.8141    5.2026    3.3946 C   0  0  0  0  0  0  0  0  0  0  0  0
    0.2072    1.5067   -0.1007 C   0  0  0  0  0  0  0  0  0  0  0  0
   -1.5171    2.1617    1.5984 C   0  0  0  0  0  0  0  0  0  0  0  0
    0.1062    0.3188    2.1058 C   0  0  0  0  0  0  0  0  0  0  0  0
    0.3923    3.7055    1.0903 C   0  0  0  0  0  0  0  0  0  0  0  0
    2.0173    1.8606    1.5981 C   0  0  0  0  0  0  0  0  0  0  0  0
    0.2906    2.5162    3.3002 C   0  0  0  0  0  0  0  0  0  0  0  0
   -0.5880    2.6836    0.4892 C   0  0  0  0  0  0  0  0  0  0  0  0
    1.0436    0.8311    0.9991 C   0  0  0  0  0  0  0  0  0  0  0  0
   -0.6899    1.4894    2.7074 C   0  0  0  0  0  0  0  0  0  0  0  0
    1.2382    3.0491    2.2039 C   0  0  0  0  0  0  0  0  0  0  0  0
    4.2771    5.6607    3.7591 C   0  0  0  0  0  0  0  0  0  0  0  0
    6.4714   11.6045    5.4030 N   0  0  0  0  0  0  0  0  0  0  0  0
    7.5399    9.6179    6.2575 N   0  0  0  0  0  0  0  0  0  0  0  0
    2.1568    4.0135    2.7685 N   0  0  0  0  0  0  0  0  0  0  0  0
    2.8644    5.9709    3.8596 N   0  0  0  0  0  0  0  0  0  0  0  0
    8.7383   11.7679    6.1411 N   0  3  0  0  0  0  0  0  0  0  0  0
    0.2444    5.7604    3.6227 S   0  0  0  0  0  0  0  0  0  0  0  0
    5.1244    5.7294    6.3451 H   0  0  0  0  0  0  0  0  0  0  0  0
    5.3355    7.9005    2.6306 H   0  0  0  0  0  0  0  0  0  0  0  0
    6.5354    7.4424    7.4250 H   0  0  0  0  0  0  0  0  0  0  0  0
    6.7472    9.6114    3.7126 H   0  0  0  0  0  0  0  0  0  0  0  0
   -0.4794    0.7783   -0.5495 H   0  0  0  0  0  0  0  0  0  0  0  0
    0.8633    1.8632   -0.9044 H   0  0  0  0  0  0  0  0  0  0  0  0
   -2.1021    2.9897    2.0174 H   0  0  0  0  0  0  0  0  0  0  0  0
   -2.2343    1.4453    1.1795 H   0  0  0  0  0  0  0  0  0  0  0  0
   -0.5823   -0.4305    1.6963 H   0  0  0  0  0  0  0  0  0  0  0  0
    0.6896   -0.1794    2.8897 H   0  0  0  0  0  0  0  0  0  0  0  0
    1.0451    4.1041    0.3024 H   0  0  0  0  0  0  0  0  0  0  0  0
   -0.1642    4.5631    1.4910 H   0  0  0  0  0  0  0  0  0  0  0  0
    2.6382    1.3811    2.3664 H   0  0  0  0  0  0  0  0  0  0  0  0
    2.7084    2.2159    0.8223 H   0  0  0  0  0  0  0  0  0  0  0  0
   -0.2682    3.3447    3.7552 H   0  0  0  0  0  0  0  0  0  0  0  0
    0.8690    2.0538    4.1110 H   0  0  0  0  0  0  0  0  0  0  0  0
   -1.1825    3.1599   -0.2983 H   0  0  0  0  0  0  0  0  0  0  0  0
    1.6066   -0.0071    0.5738 H   0  0  0  0  0  0  0  0  0  0  0  0
   -1.3570    1.1183    3.4933 H   0  0  0  0  0  0  0  0  0  0  0  0
    4.5407    5.5696    2.6990 H   0  0  0  0  0  0  0  0  0  0  0  0
    4.4537    4.6780    4.2112 H   0  0  0  0  0  0  0  0  0  0  0  0
    5.6076   11.0866    5.2610 H   0  0  0  0  0  0  0  0  0  0  0  0
    6.4759   12.5904    5.1526 H   0  0  0  0  0  0  0  0  0  0  0  0
    8.1760    9.3105    7.0047 H   0  0  0  0  0  0  0  0  0  0  0  0
    3.1436    3.7842    2.6929 H   0  0  0  0  0  0  0  0  0  0  0  0
    2.6208    6.8424    4.3206 H   0  0  0  0  0  0  0  0  0  0  0  0
    8.7189   12.7683    5.9562 H   0  0  0  0  0  0  0  0  0  0  0  0
    9.5882   11.3990    6.5566 H   0  0  0  0  0  0  0  0  0  0  0  0
  1  3  1  0  0  0  0
  1  5  2  0  0  0  0
  2  4  2  0  0  0  0
  2  5  1  0  0  0  0
  3  6  2  0  0  0  0
  4  6  1  0  0  0  0
  5 19  1  0  0  0  0
  6 21  1  0  0  0  0
  7 20  1  0  0  0  0
  7 21  1  0  0  0  0
  7 24  2  0  0  0  0
  8 22  1  0  0  0  0
  8 23  1  0  0  0  0
  8 25  2  0  0  0  0
  9 15  1  0  0  0  0
  9 16  1  0  0  0  0
 10 15  1  0  0  0  0
 10 17  1  0  0  0  0
 11 16  1  0  0  0  0
 11 17  1  0  0  0  0
 12 15  1  0  0  0  0
 12 18  1  0  0  0  0
 13 16  1  0  0  0  0
 13 18  1  0  0  0  0
 14 17  1  0  0  0  0
 14 18  1  0  0  0  0
 18 22  1  0  0  0  0
 19 23  1  0  0  0  0
  1 26  1  0  0  0  0
  2 27  1  0  0  0  0
  3 28  1  0  0  0  0
  4 29  1  0  0  0  0
  9 30  1  0  0  0  0
  9 31  1  0  0  0  0
 10 32  1  0  0  0  0
 10 33  1  0  0  0  0
 11 34  1  0  0  0  0
 11 35  1  0  0  0  0
 12 36  1  0  0  0  0
 12 37  1  0  0  0  0
 13 38  1  0  0  0  0
 13 39  1  0  0  0  0
 14 40  1  0  0  0  0
 14 41  1  0  0  0  0
 15 42  1  0  0  0  0
 16 43  1  0  0  0  0
 17 44  1  0  0  0  0
 19 45  1  0  0  0  0
 19 46  1  0  0  0  0
 20 47  1  0  0  0  0
 20 48  1  0  0  0  0
 21 49  1  0  0  0  0
 22 50  1  0  0  0  0
 23 51  1  0  0  0  0
 24 52  1  0  0  0  0
 24 53  1  0  0  0  0
M  CHG  1  24   1
M  END
