U13
  -OEChem-12290723543D

 55 58  0     1  0  0  0  0  0999 V2000
    3.3127    2.1640    5.9728 C   0  0  0  0  0  0  0  0  0  0  0  0
    5.3013    2.1394    2.8383 C   0  0  0  0  0  0  0  0  0  0  0  0
    4.2455    2.6617    6.8831 C   0  0  0  0  0  0  0  0  0  0  0  0
    4.3688    1.6408    1.9282 C   0  0  0  0  0  0  0  0  0  0  0  0
   -0.1294   -1.0992   -1.8474 C   0  0  0  0  0  0  0  0  0  0  0  0
    0.5539   -0.4891   -0.7960 C   0  0  0  0  0  0  0  0  0  0  0  0
    5.8858    2.8178    5.1188 C   0  0  0  0  0  0  0  0  0  0  0  0
    2.7282    1.4859    3.6923 C   0  0  0  0  0  0  0  0  0  0  0  0
    2.6568   -1.1381   -1.7876 C   0  0  0  0  0  0  0  0  0  0  0  0
    4.9599    2.3176    4.1889 C   0  0  0  0  0  0  0  0  0  0  0  0
    3.6541    1.9859    4.6222 C   0  0  0  0  0  0  0  0  0  0  0  0
    5.5295    2.9882    6.4569 C   0  0  0  0  0  0  0  0  0  0  0  0
    3.0846    1.3148    2.3544 C   0  0  0  0  0  0  0  0  0  0  0  0
    0.5755   -1.7290   -2.8824 C   0  0  0  0  0  0  0  0  0  0  0  0
    1.9803   -1.7651   -2.8435 C   0  0  0  0  0  0  0  0  0  0  0  0
    1.9459   -0.5066   -0.7673 C   0  0  0  0  0  0  0  0  0  0  0  0
   -2.5573   -3.4470   -6.5481 C   0  0  0  0  0  0  0  0  0  0  0  0
   -1.3336   -2.9219   -6.6738 C   0  0  0  0  0  0  0  0  0  0  0  0
    6.4942    3.5045    7.4023 C   0  0  0  0  0  0  0  0  0  0  0  0
    2.0912    0.7869    1.3828 C   0  0  0  0  0  0  0  0  0  0  0  0
    2.7691   -2.4105   -3.9543 C   0  0  0  0  0  0  0  0  0  0  0  0
   -0.1838   -2.4047   -3.9913 C   0  0  0  0  0  0  0  0  0  0  0  0
    1.9577   -3.4154   -4.7647 C   0  0  0  0  0  0  0  0  0  0  0  0
   -0.0873   -3.5888   -6.1927 C   0  0  0  0  0  0  0  0  0  0  0  0
    6.1604    3.6723    8.6929 N   0  0  0  0  0  0  0  0  0  0  0  0
    2.6301    0.1090    0.2813 N   0  0  0  0  0  0  0  0  0  0  0  0
    7.7375    3.8207    7.0026 N   0  3  0  0  0  0  0  0  0  0  0  0
    0.6683   -2.7613   -5.1924 N   0  3  1  0  0  0  0  0  0  0  0  0
    0.9027    0.9643    1.6277 O   0  0  0  0  0  0  0  0  0  0  0  0
    2.3149    1.9152    6.3280 H   0  0  0  0  0  0  0  0  0  0  0  0
    6.2991    2.3884    2.4830 H   0  0  0  0  0  0  0  0  0  0  0  0
    3.9593    2.7913    7.9237 H   0  0  0  0  0  0  0  0  0  0  0  0
    4.6562    1.5119    0.8878 H   0  0  0  0  0  0  0  0  0  0  0  0
   -1.2163   -1.0806   -1.8572 H   0  0  0  0  0  0  0  0  0  0  0  0
   -0.0112   -0.0023   -0.0050 H   0  0  0  0  0  0  0  0  0  0  0  0
    6.8935    3.0771    4.7985 H   0  0  0  0  0  0  0  0  0  0  0  0
    1.7205    1.2284    4.0147 H   0  0  0  0  0  0  0  0  0  0  0  0
    3.7448   -1.1460   -1.7653 H   0  0  0  0  0  0  0  0  0  0  0  0
   -3.4248   -2.9148   -6.9227 H   0  0  0  0  0  0  0  0  0  0  0  0
   -2.7157   -4.4094   -6.0743 H   0  0  0  0  0  0  0  0  0  0  0  0
   -1.2290   -1.9562   -7.1615 H   0  0  0  0  0  0  0  0  0  0  0  0
    3.1376   -1.6167   -4.6164 H   0  0  0  0  0  0  0  0  0  0  0  0
    3.6436   -2.9250   -3.5383 H   0  0  0  0  0  0  0  0  0  0  0  0
   -0.6216   -3.3381   -3.6179 H   0  0  0  0  0  0  0  0  0  0  0  0
   -0.9770   -1.7488   -4.3669 H   0  0  0  0  0  0  0  0  0  0  0  0
    2.5016   -3.7121   -5.6675 H   0  0  0  0  0  0  0  0  0  0  0  0
    1.6993   -4.3073   -4.1822 H   0  0  0  0  0  0  0  0  0  0  0  0
    0.5964   -3.7604   -7.0298 H   0  0  0  0  0  0  0  0  0  0  0  0
   -0.2891   -4.5480   -5.7054 H   0  0  0  0  0  0  0  0  0  0  0  0
    5.2274    3.4454    9.0184 H   0  0  0  0  0  0  0  0  0  0  0  0
    6.8234    4.0395    9.3668 H   0  0  0  0  0  0  0  0  0  0  0  0
    3.6533    0.0355    0.2503 H   0  0  0  0  0  0  0  0  0  0  0  0
    8.0161    3.6969    6.0357 H   0  0  0  0  0  0  0  0  0  0  0  0
    8.4270    4.1791    7.6543 H   0  0  0  0  0  0  0  0  0  0  0  0
    0.9139   -1.8807   -5.6662 H   0  0  0  0  0  0  0  0  0  0  0  0
  1  3  2  0  0  0  0
  1 11  1  0  0  0  0
  2  4  2  0  0  0  0
  2 10  1  0  0  0  0
  3 12  1  0  0  0  0
  4 13  1  0  0  0  0
  5  6  2  0  0  0  0
  5 14  1  0  0  0  0
  6 16  1  0  0  0  0
  7 10  1  0  0  0  0
  7 12  2  0  0  0  0
  8 11  1  0  0  0  0
  8 13  2  0  0  0  0
  9 15  1  0  0  0  0
  9 16  2  0  0  0  0
 10 11  2  0  0  0  0
 12 19  1  0  0  0  0
 13 20  1  0  0  0  0
 14 15  2  0  0  0  0
 14 22  1  0  0  0  0
 15 21  1  0  0  0  0
 16 26  1  0  0  0  0
 17 18  2  0  0  0  0
 18 24  1  0  0  0  0
 19 25  1  0  0  0  0
 19 27  2  0  0  0  0
 20 26  1  0  0  0  0
 20 29  2  0  0  0  0
 21 23  1  0  0  0  0
 22 28  1  0  0  0  0
 23 28  1  0  0  0  0
 24 28  1  0  0  0  0
  1 30  1  0  0  0  0
  2 31  1  0  0  0  0
  3 32  1  0  0  0  0
  4 33  1  0  0  0  0
  5 34  1  0  0  0  0
  6 35  1  0  0  0  0
  7 36  1  0  0  0  0
  8 37  1  0  0  0  0
  9 38  1  0  0  0  0
 17 39  1  0  0  0  0
 17 40  1  0  0  0  0
 18 41  1  0  0  0  0
 21 42  1  0  0  0  0
 21 43  1  0  0  0  0
 22 44  1  0  0  0  0
 22 45  1  0  0  0  0
 23 46  1  0  0  0  0
 23 47  1  0  0  0  0
 24 48  1  0  0  0  0
 24 49  1  0  0  0  0
 25 50  1  0  0  0  0
 25 51  1  0  0  0  0
 26 52  1  0  0  0  0
 27 53  1  0  0  0  0
 27 54  1  0  0  0  0
 28 55  1  0  0  0  0
M  CHG  2  27   1  28   1
M  END
