U18
  -OEChem-12290723543D

 36 38  0     0  0  0  0  0  0999 V2000
   -0.1143   -3.3819    0.3148 C   0  0  0  0  0  0  0  0  0  0  0  0
    3.4995   -2.9573   -0.4201 C   0  0  0  0  0  0  0  0  0  0  0  0
   -0.5554   -2.0586    0.2858 C   0  0  0  0  0  0  0  0  0  0  0  0
   -1.4228    0.6312   -0.3994 C   0  0  0  0  0  0  0  0  0  0  0  0
    0.7498    1.3750    0.3517 C   0  0  0  0  0  0  0  0  0  0  0  0
    3.9407   -4.2805   -0.3901 C   0  0  0  0  0  0  0  0  0  0  0  0
   -1.8652    1.9536   -0.4296 C   0  0  0  0  0  0  0  0  0  0  0  0
    0.3073    2.6976    0.3215 C   0  0  0  0  0  0  0  0  0  0  0  0
    1.6885   -1.3204   -0.2122 C   0  0  0  0  0  0  0  0  0  0  0  0
    1.6967   -5.0187    0.1067 C   0  0  0  0  0  0  0  0  0  0  0  0
    2.1500   -2.6465   -0.1864 C   0  0  0  0  0  0  0  0  0  0  0  0
    1.2352   -3.6926    0.0810 C   0  0  0  0  0  0  0  0  0  0  0  0
   -0.1153    0.3419   -0.0088 C   0  0  0  0  0  0  0  0  0  0  0  0
    0.3442   -1.0299    0.0226 C   0  0  0  0  0  0  0  0  0  0  0  0
    3.0409   -5.3093   -0.1273 C   0  0  0  0  0  0  0  0  0  0  0  0
   -1.0002    2.9868   -0.0693 C   0  0  0  0  0  0  0  0  0  0  0  0
    3.4998   -6.6802   -0.0982 C   0  0  0  0  0  0  0  0  0  0  0  0
   -1.4473    4.3241   -0.1001 N   0  0  0  0  0  0  0  0  0  0  0  0
    4.7922   -6.9708   -0.3234 N   0  0  0  0  0  0  0  0  0  0  0  0
    2.6402   -7.6809    0.1570 N   0  3  0  0  0  0  0  0  0  0  0  0
   -0.8348   -4.1703    0.5232 H   0  0  0  0  0  0  0  0  0  0  0  0
    4.2203   -2.1691   -0.6277 H   0  0  0  0  0  0  0  0  0  0  0  0
   -1.6059   -1.8473    0.4711 H   0  0  0  0  0  0  0  0  0  0  0  0
   -2.1086   -0.1638   -0.6827 H   0  0  0  0  0  0  0  0  0  0  0  0
    1.7718    1.1655    0.6582 H   0  0  0  0  0  0  0  0  0  0  0  0
    4.9897   -4.4978   -0.5741 H   0  0  0  0  0  0  0  0  0  0  0  0
   -2.8861    2.1675   -0.7355 H   0  0  0  0  0  0  0  0  0  0  0  0
    0.9903    3.4950    0.6035 H   0  0  0  0  0  0  0  0  0  0  0  0
    2.3869   -0.5098   -0.4174 H   0  0  0  0  0  0  0  0  0  0  0  0
    1.0029   -5.8328    0.3113 H   0  0  0  0  0  0  0  0  0  0  0  0
   -2.3713    4.5222   -0.4270 H   0  0  0  0  0  0  0  0  0  0  0  0
   -0.8037    5.0585    0.1150 H   0  0  0  0  0  0  0  0  0  0  0  0
    5.4596   -6.2341   -0.5227 H   0  0  0  0  0  0  0  0  0  0  0  0
    5.1283   -7.9275   -0.3130 H   0  0  0  0  0  0  0  0  0  0  0  0
    1.6613   -7.4873    0.3368 H   0  0  0  0  0  0  0  0  0  0  0  0
    2.9473   -8.6470    0.1858 H   0  0  0  0  0  0  0  0  0  0  0  0
  1  3  2  0  0  0  0
  1 12  1  0  0  0  0
  2  6  2  0  0  0  0
  2 11  1  0  0  0  0
  3 14  1  0  0  0  0
  4  7  1  0  0  0  0
  4 13  2  0  0  0  0
  5  8  2  0  0  0  0
  5 13  1  0  0  0  0
  6 15  1  0  0  0  0
  7 16  2  0  0  0  0
  8 16  1  0  0  0  0
  9 11  1  0  0  0  0
  9 14  2  0  0  0  0
 10 12  1  0  0  0  0
 10 15  2  0  0  0  0
 11 12  2  0  0  0  0
 13 14  1  0  0  0  0
 15 17  1  0  0  0  0
 16 18  1  0  0  0  0
 17 19  1  0  0  0  0
 17 20  2  0  0  0  0
  1 21  1  0  0  0  0
  2 22  1  0  0  0  0
  3 23  1  0  0  0  0
  4 24  1  0  0  0  0
  5 25  1  0  0  0  0
  6 26  1  0  0  0  0
  7 27  1  0  0  0  0
  8 28  1  0  0  0  0
  9 29  1  0  0  0  0
 10 30  1  0  0  0  0
 18 31  1  0  0  0  0
 18 32  1  0  0  0  0
 19 33  1  0  0  0  0
 19 34  1  0  0  0  0
 20 35  1  0  0  0  0
 20 36  1  0  0  0  0
M  CHG  1  20   1
M  END
