U21
  -OEChem-12290723543D

 39 42  0     0  0  0  0  0  0999 V2000
   -0.8772   -4.2370    1.1573 C   0  0  0  0  0  0  0  0  0  0  0  0
   -0.2937   -5.3507    1.7539 C   0  0  0  0  0  0  0  0  0  0  0  0
    7.4645   -0.4085    0.1240 C   0  0  0  0  0  0  0  0  0  0  0  0
   -0.1188   -3.4120    0.3262 C   0  0  0  0  0  0  0  0  0  0  0  0
    1.0504   -5.6440    1.5213 C   0  0  0  0  0  0  0  0  0  0  0  0
    6.5540    0.2112    0.9752 C   0  0  0  0  0  0  0  0  0  0  0  0
    2.0134   -2.8729   -0.7531 C   0  0  0  0  0  0  0  0  0  0  0  0
    4.6668    0.0488    2.5287 C   0  0  0  0  0  0  0  0  0  0  0  0
    7.4208   -1.7875   -0.0403 C   0  0  0  0  0  0  0  0  0  0  0  0
    3.3572   -3.1665   -0.9863 C   0  0  0  0  0  0  0  0  0  0  0  0
    3.7324   -0.7297    3.1963 C   0  0  0  0  0  0  0  0  0  0  0  0
    3.1827   -5.1050    0.4418 C   0  0  0  0  0  0  0  0  0  0  0  0
    1.2353   -3.6921    0.0808 C   0  0  0  0  0  0  0  0  0  0  0  0
    5.5951   -0.5492    1.6658 C   0  0  0  0  0  0  0  0  0  0  0  0
    1.8286   -4.8248    0.6873 C   0  0  0  0  0  0  0  0  0  0  0  0
    5.5449   -1.9497    1.5038 C   0  0  0  0  0  0  0  0  0  0  0  0
    6.4673   -2.5432    0.6465 C   0  0  0  0  0  0  0  0  0  0  0  0
    3.9407   -4.2805   -0.3901 C   0  0  0  0  0  0  0  0  0  0  0  0
    3.7608   -2.0915    2.9743 C   0  0  0  0  0  0  0  0  0  0  0  0
    4.6392   -2.7077    2.1505 N   0  0  0  0  0  0  0  0  0  0  0  0
    6.4648   -3.8846    0.4536 N   0  5  0  0  0  0  0  0  0  0  0  0
    2.8046   -2.8815    3.6594 N   0  0  0  0  0  0  0  0  0  0  0  0
    5.7038   -6.1158   -0.5938 O   0  0  0  0  0  0  0  0  0  0  0  0
    5.8801   -4.1440   -2.0454 O   0  0  0  0  0  0  0  0  0  0  0  0
    5.6225   -4.6461   -0.6829 S   0  0  0  0  0  0  0  0  0  0  0  0
   -1.9235   -4.0094    1.3391 H   0  0  0  0  0  0  0  0  0  0  0  0
   -0.8843   -5.9924    2.4012 H   0  0  0  0  0  0  0  0  0  0  0  0
    8.2038    0.1826   -0.4076 H   0  0  0  0  0  0  0  0  0  0  0  0
   -0.5957   -2.5466   -0.1292 H   0  0  0  0  0  0  0  0  0  0  0  0
    1.4850   -6.5206    1.9977 H   0  0  0  0  0  0  0  0  0  0  0  0
    6.5966    1.2913    1.0969 H   0  0  0  0  0  0  0  0  0  0  0  0
    1.5778   -1.9969   -1.2293 H   0  0  0  0  0  0  0  0  0  0  0  0
    4.6681    1.1249    2.6864 H   0  0  0  0  0  0  0  0  0  0  0  0
    8.1380   -2.2596   -0.7088 H   0  0  0  0  0  0  0  0  0  0  0  0
    3.9392   -2.5175   -1.6354 H   0  0  0  0  0  0  0  0  0  0  0  0
    3.0122   -0.2700    3.8649 H   0  0  0  0  0  0  0  0  0  0  0  0
    3.6498   -5.9733    0.9035 H   0  0  0  0  0  0  0  0  0  0  0  0
    2.1865   -2.4380    4.3035 H   0  0  0  0  0  0  0  0  0  0  0  0
    2.8340   -3.8721    3.5531 H   0  0  0  0  0  0  0  0  0  0  0  0
  1  2  1  0  0  0  0
  1  4  2  0  0  0  0
  2  5  2  0  0  0  0
  3  6  1  0  0  0  0
  3  9  2  0  0  0  0
  4 13  1  0  0  0  0
  5 15  1  0  0  0  0
  6 14  2  0  0  0  0
  7 10  2  0  0  0  0
  7 13  1  0  0  0  0
  8 11  2  0  0  0  0
  8 14  1  0  0  0  0
  9 17  1  0  0  0  0
 10 18  1  0  0  0  0
 11 19  1  0  0  0  0
 12 15  1  0  0  0  0
 12 18  2  0  0  0  0
 13 15  2  0  0  0  0
 14 16  1  0  0  0  0
 16 17  2  0  0  0  0
 16 20  1  0  0  0  0
 17 21  1  0  0  0  0
 18 25  1  0  0  0  0
 19 20  2  0  0  0  0
 19 22  1  0  0  0  0
 21 25  1  0  0  0  0
 23 25  2  0  0  0  0
 24 25  2  0  0  0  0
  1 26  1  0  0  0  0
  2 27  1  0  0  0  0
  3 28  1  0  0  0  0
  4 29  1  0  0  0  0
  5 30  1  0  0  0  0
  6 31  1  0  0  0  0
  7 32  1  0  0  0  0
  8 33  1  0  0  0  0
  9 34  1  0  0  0  0
 10 35  1  0  0  0  0
 11 36  1  0  0  0  0
 12 37  1  0  0  0  0
 22 38  1  0  0  0  0
 22 39  1  0  0  0  0
M  CHG  1  21  -1
M  END
