U22
  -OEChem-12290723543D

 66 70  0     0  0  0  0  0  0999 V2000
    9.1415   -1.1801   -5.2636 C   0  0  0  0  0  0  0  0  0  0  0  0
    9.6203   -1.3060   -6.5680 C   0  0  0  0  0  0  0  0  0  0  0  0
    6.2057   -5.2652   -2.2666 C   0  0  0  0  0  0  0  0  0  0  0  0
    6.6292   -5.9057    0.0242 C   0  0  0  0  0  0  0  0  0  0  0  0
    5.9442   -6.5963   -2.5906 C   0  0  0  0  0  0  0  0  0  0  0  0
    6.3677   -7.2371   -0.2998 C   0  0  0  0  0  0  0  0  0  0  0  0
   12.4068   -8.6900   -2.1719 C   0  0  0  0  0  0  0  0  0  0  0  0
   10.2624   -3.5882   -6.1131 C   0  0  0  0  0  0  0  0  0  0  0  0
    8.7405   -2.1480   -3.0490 C   0  0  0  0  0  0  0  0  0  0  0  0
    9.3838   -4.4298   -2.5937 C   0  0  0  0  0  0  0  0  0  0  0  0
   11.9426   -7.5350   -1.5766 C   0  0  0  0  0  0  0  0  0  0  0  0
   12.1573   -8.8067   -3.5241 C   0  0  0  0  0  0  0  0  0  0  0  0
    9.2171   -2.2571   -4.3655 C   0  0  0  0  0  0  0  0  0  0  0  0
    9.7860   -3.4791   -4.7965 C   0  0  0  0  0  0  0  0  0  0  0  0
   10.1795   -2.5078   -6.9920 C   0  0  0  0  0  0  0  0  0  0  0  0
    6.5482   -4.9198   -0.9592 C   0  0  0  0  0  0  0  0  0  0  0  0
    6.0250   -7.5823   -1.6072 C   0  0  0  0  0  0  0  0  0  0  0  0
    8.8242   -3.2280   -2.1699 C   0  0  0  0  0  0  0  0  0  0  0  0
    9.8617   -4.5560   -3.8984 C   0  0  0  0  0  0  0  0  0  0  0  0
   11.1035   -6.7929   -3.5546 C   0  0  0  0  0  0  0  0  0  0  0  0
   10.6767   -2.6353   -8.3440 C   0  0  0  0  0  0  0  0  0  0  0  0
    8.2978  -10.3468   -4.2607 C   0  0  0  0  0  0  0  0  0  0  0  0
    7.2340  -11.4162   -4.1146 C   0  0  0  0  0  0  0  0  0  0  0  0
    7.6599   -9.1524   -3.5845 C   0  0  0  0  0  0  0  0  0  0  0  0
    6.7094  -11.2239   -2.7025 C   0  0  0  0  0  0  0  0  0  0  0  0
    6.8307   -3.4792   -0.6087 C   0  0  0  0  0  0  0  0  0  0  0  0
    8.3140   -3.0937   -0.7749 C   0  0  0  0  0  0  0  0  0  0  0  0
    5.7456   -9.0059   -1.9533 C   0  0  0  0  0  0  0  0  0  0  0  0
   11.2845   -6.5619   -2.2403 N   0  0  0  0  0  0  0  0  0  0  0  0
   11.5060   -7.8739   -4.2494 N   0  0  0  0  0  0  0  0  0  0  0  0
   10.6031   -1.6000   -9.1970 N   0  0  0  0  0  0  0  0  0  0  0  0
   10.4220   -5.8008   -4.2777 N   0  0  0  0  0  0  0  0  0  0  0  0
   11.2208   -3.7900   -8.7633 N   0  3  0  0  0  0  0  0  0  0  0  0
    6.9606   -9.7604   -2.3885 N   0  3  0  0  0  0  0  0  0  0  0  0
    8.7077   -0.2313   -4.9548 H   0  0  0  0  0  0  0  0  0  0  0  0
    9.5514   -0.4591   -7.2457 H   0  0  0  0  0  0  0  0  0  0  0  0
    6.1396   -4.5034   -3.0387 H   0  0  0  0  0  0  0  0  0  0  0  0
    6.8951   -5.6466    1.0456 H   0  0  0  0  0  0  0  0  0  0  0  0
    5.6778   -6.8568   -3.6116 H   0  0  0  0  0  0  0  0  0  0  0  0
    6.4329   -7.9984    0.4732 H   0  0  0  0  0  0  0  0  0  0  0  0
   12.9320   -9.4542   -1.6150 H   0  0  0  0  0  0  0  0  0  0  0  0
   10.7049   -4.5149   -6.4739 H   0  0  0  0  0  0  0  0  0  0  0  0
    8.3008   -1.2134   -2.7046 H   0  0  0  0  0  0  0  0  0  0  0  0
    9.4451   -5.2702   -1.9057 H   0  0  0  0  0  0  0  0  0  0  0  0
   12.0917   -7.3543   -0.5174 H   0  0  0  0  0  0  0  0  0  0  0  0
   12.4841   -9.6800   -4.0784 H   0  0  0  0  0  0  0  0  0  0  0  0
    9.2134  -10.6428   -3.7350 H   0  0  0  0  0  0  0  0  0  0  0  0
    8.5510  -10.1468   -5.3055 H   0  0  0  0  0  0  0  0  0  0  0  0
    6.4281  -11.2484   -4.8394 H   0  0  0  0  0  0  0  0  0  0  0  0
    7.6260  -12.4243   -4.2763 H   0  0  0  0  0  0  0  0  0  0  0  0
    8.3777   -8.4094   -3.2287 H   0  0  0  0  0  0  0  0  0  0  0  0
    6.8999   -8.6874   -4.2211 H   0  0  0  0  0  0  0  0  0  0  0  0
    5.6415  -11.4439   -2.6138 H   0  0  0  0  0  0  0  0  0  0  0  0
    7.2779  -11.8052   -1.9701 H   0  0  0  0  0  0  0  0  0  0  0  0
    6.2104   -2.8415   -1.2519 H   0  0  0  0  0  0  0  0  0  0  0  0
    6.5004   -3.2738    0.4176 H   0  0  0  0  0  0  0  0  0  0  0  0
    8.9136   -3.7363   -0.1077 H   0  0  0  0  0  0  0  0  0  0  0  0
    8.4740   -2.0688   -0.3978 H   0  0  0  0  0  0  0  0  0  0  0  0
    5.3317   -9.5574   -1.0980 H   0  0  0  0  0  0  0  0  0  0  0  0
    5.0207   -9.0864   -2.7750 H   0  0  0  0  0  0  0  0  0  0  0  0
   10.1928   -0.7196   -8.9061 H   0  0  0  0  0  0  0  0  0  0  0  0
   10.9412   -1.6755  -10.1502 H   0  0  0  0  0  0  0  0  0  0  0  0
   10.3054   -6.0087   -5.2625 H   0  0  0  0  0  0  0  0  0  0  0  0
   11.2940   -4.5838   -8.1368 H   0  0  0  0  0  0  0  0  0  0  0  0
   11.5784   -3.8938   -9.7067 H   0  0  0  0  0  0  0  0  0  0  0  0
    7.6299   -9.7350   -1.6063 H   0  0  0  0  0  0  0  0  0  0  0  0
  1  2  2  0  0  0  0
  1 13  1  0  0  0  0
  2 15  1  0  0  0  0
  3  5  2  0  0  0  0
  3 16  1  0  0  0  0
  4  6  1  0  0  0  0
  4 16  2  0  0  0  0
  5 17  1  0  0  0  0
  6 17  2  0  0  0  0
  7 11  1  0  0  0  0
  7 12  2  0  0  0  0
  8 14  1  0  0  0  0
  8 15  2  0  0  0  0
  9 13  2  0  0  0  0
  9 18  1  0  0  0  0
 10 18  2  0  0  0  0
 10 19  1  0  0  0  0
 11 29  2  0  0  0  0
 12 30  1  0  0  0  0
 13 14  1  0  0  0  0
 14 19  2  0  0  0  0
 15 21  1  0  0  0  0
 16 26  1  0  0  0  0
 17 28  1  0  0  0  0
 18 27  1  0  0  0  0
 19 32  1  0  0  0  0
 20 29  1  0  0  0  0
 20 30  2  0  0  0  0
 20 32  1  0  0  0  0
 21 31  1  0  0  0  0
 21 33  2  0  0  0  0
 22 23  1  0  0  0  0
 22 24  1  0  0  0  0
 23 25  1  0  0  0  0
 24 34  1  0  0  0  0
 25 34  1  0  0  0  0
 26 27  1  0  0  0  0
 28 34  1  0  0  0  0
  1 35  1  0  0  0  0
  2 36  1  0  0  0  0
  3 37  1  0  0  0  0
  4 38  1  0  0  0  0
  5 39  1  0  0  0  0
  6 40  1  0  0  0  0
  7 41  1  0  0  0  0
  8 42  1  0  0  0  0
  9 43  1  0  0  0  0
 10 44  1  0  0  0  0
 11 45  1  0  0  0  0
 12 46  1  0  0  0  0
 22 47  1  0  0  0  0
 22 48  1  0  0  0  0
 23 49  1  0  0  0  0
 23 50  1  0  0  0  0
 24 51  1  0  0  0  0
 24 52  1  0  0  0  0
 25 53  1  0  0  0  0
 25 54  1  0  0  0  0
 26 55  1  0  0  0  0
 26 56  1  0  0  0  0
 27 57  1  0  0  0  0
 27 58  1  0  0  0  0
 28 59  1  0  0  0  0
 28 60  1  0  0  0  0
 31 61  1  0  0  0  0
 31 62  1  0  0  0  0
 32 63  1  0  0  0  0
 33 64  1  0  0  0  0
 33 65  1  0  0  0  0
 34 66  1  0  0  0  0
M  CHG  2  33   1  34   1
M  END
