U24
  -OEChem-12290723543D

 30 32  0     0  0  0  0  0  0999 V2000
    0.1874    2.0645   -0.5703 C   0  0  0  0  0  0  0  0  0  0  0  0
   -0.4876    3.1975   -1.0153 C   0  0  0  0  0  0  0  0  0  0  0  0
   -2.5789    4.2827   -1.6864 C   0  0  0  0  0  0  0  0  0  0  0  0
   -0.5187    0.8889   -0.3472 C   0  0  0  0  0  0  0  0  0  0  0  0
   -3.9482    4.2106   -1.8975 C   0  0  0  0  0  0  0  0  0  0  0  0
   -4.6268   -0.5324   -3.4969 C   0  0  0  0  0  0  0  0  0  0  0  0
   -1.8744    3.1570   -1.2386 C   0  0  0  0  0  0  0  0  0  0  0  0
   -2.5978    1.9670   -1.0141 C   0  0  0  0  0  0  0  0  0  0  0  0
   -1.8975    0.8490   -0.5692 C   0  0  0  0  0  0  0  0  0  0  0  0
   -6.0329   -0.3687   -3.6580 C   0  0  0  0  0  0  0  0  0  0  0  0
   -4.5693    3.0032   -1.6503 C   0  0  0  0  0  0  0  0  0  0  0  0
   -4.3021   -1.0204   -2.2503 C   0  0  0  0  0  0  0  0  0  0  0  0
   -6.7294   -0.7379   -2.5283 C   0  0  0  0  0  0  0  0  0  0  0  0
   -3.9268    1.8940   -1.2179 N   0  0  0  0  0  0  0  0  0  0  0  0
   -2.5404   -0.3175   -0.3376 N   0  5  0  0  0  0  0  0  0  0  0  0
   -5.9679    2.9358   -1.8670 N   0  0  0  0  0  0  0  0  0  0  0  0
   -2.9883   -2.7834   -0.9526 O   0  0  0  0  0  0  0  0  0  0  0  0
   -1.7938   -1.3750   -2.5700 O   0  0  0  0  0  0  0  0  0  0  0  0
   -5.6893   -1.2791   -1.2803 S   0  0  0  0  0  0  0  0  0  0  0  0
   -2.7375   -1.4345   -1.4558 S   0  0  0  0  0  0  0  0  0  0  0  0
   -6.7526    0.2847   -5.2774 Br  0  0  0  0  0  0  0  0  0  0  0  0
   -8.6206   -0.6786   -2.3097 Br  0  0  0  0  0  0  0  0  0  0  0  0
    1.2589    2.1000   -0.3990 H   0  0  0  0  0  0  0  0  0  0  0  0
    0.0744    4.1128   -1.1872 H   0  0  0  0  0  0  0  0  0  0  0  0
   -2.0640    5.2227   -1.8718 H   0  0  0  0  0  0  0  0  0  0  0  0
    0.0209    0.0101    0.0004 H   0  0  0  0  0  0  0  0  0  0  0  0
   -4.4966    5.0800   -2.2443 H   0  0  0  0  0  0  0  0  0  0  0  0
   -3.8836   -0.3070   -4.2519 H   0  0  0  0  0  0  0  0  0  0  0  0
   -6.4531    3.7626   -2.1397 H   0  0  0  0  0  0  0  0  0  0  0  0
   -6.4480    2.0893   -1.6510 H   0  0  0  0  0  0  0  0  0  0  0  0
  1  2  1  0  0  0  0
  1  4  2  0  0  0  0
  2  7  2  0  0  0  0
  3  5  2  0  0  0  0
  3  7  1  0  0  0  0
  4  9  1  0  0  0  0
  5 11  1  0  0  0  0
  6 10  1  0  0  0  0
  6 12  2  0  0  0  0
  7  8  1  0  0  0  0
  8  9  2  0  0  0  0
  8 14  1  0  0  0  0
  9 15  1  0  0  0  0
 10 13  2  0  0  0  0
 10 21  1  0  0  0  0
 11 14  2  0  0  0  0
 11 16  1  0  0  0  0
 12 19  1  0  0  0  0
 12 20  1  0  0  0  0
 13 19  1  0  0  0  0
 13 22  1  0  0  0  0
 15 20  1  0  0  0  0
 17 20  2  0  0  0  0
 18 20  2  0  0  0  0
  1 23  1  0  0  0  0
  2 24  1  0  0  0  0
  3 25  1  0  0  0  0
  4 26  1  0  0  0  0
  5 27  1  0  0  0  0
  6 28  1  0  0  0  0
 16 29  1  0  0  0  0
 16 30  1  0  0  0  0
M  CHG  1  15  -1
M  END
