U26
  -OEChem-12290723543D

 35 37  0     0  0  0  0  0  0999 V2000
    6.6447    1.3375   -0.1880 C   0  0  0  0  0  0  0  0  0  0  0  0
    5.8999    2.4981   -0.3965 C   0  0  0  0  0  0  0  0  0  0  0  0
    6.0469    0.2205    0.3957 C   0  0  0  0  0  0  0  0  0  0  0  0
    0.2607    1.1014    0.3083 C   0  0  0  0  0  0  0  0  0  0  0  0
   -0.1625    1.5142    1.5715 C   0  0  0  0  0  0  0  0  0  0  0  0
    4.5572    2.5420   -0.0211 C   0  0  0  0  0  0  0  0  0  0  0  0
    4.7041    0.2642    0.7710 C   0  0  0  0  0  0  0  0  0  0  0  0
    1.6191    1.0798    0.0004 C   0  0  0  0  0  0  0  0  0  0  0  0
    3.0708    2.2886    3.2086 C   0  0  0  0  0  0  0  0  0  0  0  0
    2.5884    2.6883    4.4455 C   0  0  0  0  0  0  0  0  0  0  0  0
    0.7757    1.9102    2.5389 C   0  0  0  0  0  0  0  0  0  0  0  0
    2.1518    1.8901    2.2309 C   0  0  0  0  0  0  0  0  0  0  0  0
    3.9592    1.4250    0.5625 C   0  0  0  0  0  0  0  0  0  0  0  0
    2.5602    1.4714    0.9541 C   0  0  0  0  0  0  0  0  0  0  0  0
    0.4079    2.3319    3.8182 C   0  0  0  0  0  0  0  0  0  0  0  0
   -1.4979    2.7181    5.4251 C   0  0  0  0  0  0  0  0  0  0  0  0
    1.2798    2.7203    4.7759 N   0  0  0  0  0  0  0  0  0  0  0  0
   -2.8839    2.6960    5.5875 N   0  0  0  0  0  0  0  0  0  0  0  0
   -0.7146    3.0382    6.5294 N   0  0  0  0  0  0  0  0  0  0  0  0
   -0.9676    2.3683    4.1731 N   0  3  0  0  0  0  0  0  0  0  0  0
    7.6903    1.3040   -0.4799 H   0  0  0  0  0  0  0  0  0  0  0  0
    6.3653    3.3677   -0.8509 H   0  0  0  0  0  0  0  0  0  0  0  0
    6.6275   -0.6829    0.5581 H   0  0  0  0  0  0  0  0  0  0  0  0
   -0.4698    0.7960   -0.4354 H   0  0  0  0  0  0  0  0  0  0  0  0
   -1.2295    1.5187    1.7809 H   0  0  0  0  0  0  0  0  0  0  0  0
    3.9893    3.4537   -0.1904 H   0  0  0  0  0  0  0  0  0  0  0  0
    4.2514   -0.6145    1.2246 H   0  0  0  0  0  0  0  0  0  0  0  0
    1.9285    0.7549   -0.9906 H   0  0  0  0  0  0  0  0  0  0  0  0
    4.1425    2.2977    3.0377 H   0  0  0  0  0  0  0  0  0  0  0  0
    3.2692    3.0042    5.2293 H   0  0  0  0  0  0  0  0  0  0  0  0
   -3.3127    2.9059    6.4856 H   0  0  0  0  0  0  0  0  0  0  0  0
   -3.5019    2.4669    4.8127 H   0  0  0  0  0  0  0  0  0  0  0  0
   -1.1131    3.2933    7.4277 H   0  0  0  0  0  0  0  0  0  0  0  0
    0.2974    3.1032    6.4452 H   0  0  0  0  0  0  0  0  0  0  0  0
   -1.6434    2.0776    3.4602 H   0  0  0  0  0  0  0  0  0  0  0  0
  1  2  1  0  0  0  0
  1  3  2  0  0  0  0
  2  6  2  0  0  0  0
  3  7  1  0  0  0  0
  4  5  1  0  0  0  0
  4  8  2  0  0  0  0
  5 11  2  0  0  0  0
  6 13  1  0  0  0  0
  7 13  2  0  0  0  0
  8 14  1  0  0  0  0
  9 10  2  0  0  0  0
  9 12  1  0  0  0  0
 10 17  1  0  0  0  0
 11 12  1  0  0  0  0
 11 15  1  0  0  0  0
 12 14  2  0  0  0  0
 13 14  1  0  0  0  0
 15 17  2  0  0  0  0
 15 20  1  0  0  0  0
 16 18  1  0  0  0  0
 16 19  1  0  0  0  0
 16 20  2  0  0  0  0
  1 21  1  0  0  0  0
  2 22  1  0  0  0  0
  3 23  1  0  0  0  0
  4 24  1  0  0  0  0
  5 25  1  0  0  0  0
  6 26  1  0  0  0  0
  7 27  1  0  0  0  0
  8 28  1  0  0  0  0
  9 29  1  0  0  0  0
 10 30  1  0  0  0  0
 18 31  1  0  0  0  0
 18 32  1  0  0  0  0
 19 33  1  0  0  0  0
 19 34  1  0  0  0  0
 20 35  1  0  0  0  0
M  CHG  1  20   1
M  END
