U29
  -OEChem-12290723553D

 54 57  0     0  0  0  0  0  0999 V2000
   -0.1143   -3.3819    0.3148 C   0  0  0  0  0  0  0  0  0  0  0  0
   -0.5554   -2.0586    0.2858 C   0  0  0  0  0  0  0  0  0  0  0  0
    7.6171   -9.2688    0.8606 C   0  0  0  0  0  0  0  0  0  0  0  0
    5.6221  -10.5052    0.2871 C   0  0  0  0  0  0  0  0  0  0  0  0
    6.9130   -8.0719    0.7300 C   0  0  0  0  0  0  0  0  0  0  0  0
    4.9179   -9.3081    0.1565 C   0  0  0  0  0  0  0  0  0  0  0  0
    8.4677   -1.6782    0.0585 C   0  0  0  0  0  0  0  0  0  0  0  0
    1.6967   -5.0187    0.1067 C   0  0  0  0  0  0  0  0  0  0  0  0
    1.6885   -1.3204   -0.2122 C   0  0  0  0  0  0  0  0  0  0  0  0
    3.9407   -4.2805   -0.3901 C   0  0  0  0  0  0  0  0  0  0  0  0
    7.7249   -2.7825    0.4228 C   0  0  0  0  0  0  0  0  0  0  0  0
    7.7689   -0.6714   -0.5758 C   0  0  0  0  0  0  0  0  0  0  0  0
    1.2352   -3.6926    0.0810 C   0  0  0  0  0  0  0  0  0  0  0  0
    2.1500   -2.6465   -0.1864 C   0  0  0  0  0  0  0  0  0  0  0  0
    0.3442   -1.0299    0.0226 C   0  0  0  0  0  0  0  0  0  0  0  0
    3.0409   -5.3093   -0.1273 C   0  0  0  0  0  0  0  0  0  0  0  0
    6.9717  -10.4855    0.6392 C   0  0  0  0  0  0  0  0  0  0  0  0
    5.5634   -8.0915    0.3781 C   0  0  0  0  0  0  0  0  0  0  0  0
    3.4995   -2.9573   -0.4201 C   0  0  0  0  0  0  0  0  0  0  0  0
    5.8342   -1.8561   -0.4341 C   0  0  0  0  0  0  0  0  0  0  0  0
   -0.1156    0.3409   -0.0072 C   0  0  0  0  0  0  0  0  0  0  0  0
    3.5019   -6.6885   -0.0965 C   0  0  0  0  0  0  0  0  0  0  0  0
    7.7244  -11.7651    0.7795 C   0  0  0  0  0  0  0  0  0  0  0  0
    6.4014   -2.9053    0.1912 N   0  0  0  0  0  0  0  0  0  0  0  0
    6.4468   -0.7273   -0.8390 N   0  0  0  0  0  0  0  0  0  0  0  0
   -1.4081    0.6307    0.2178 N   0  0  0  0  0  0  0  0  0  0  0  0
    4.4569   -1.9490   -0.6916 N   0  0  0  0  0  0  0  0  0  0  0  0
    4.8483   -6.8759    0.2455 N   0  0  0  0  0  0  0  0  0  0  0  0
    0.7445    1.3423   -0.2578 N   0  3  0  0  0  0  0  0  0  0  0  0
    7.6784  -12.3302    2.1563 N   0  3  0  0  0  0  0  0  0  0  0  0
    2.6961   -7.5994   -0.3461 O   0  0  0  0  0  0  0  0  0  0  0  0
   -0.8352   -4.1699    0.5226 H   0  0  0  0  0  0  0  0  0  0  0  0
   -1.6042   -1.8417    0.4702 H   0  0  0  0  0  0  0  0  0  0  0  0
    8.6683   -9.2440    1.1354 H   0  0  0  0  0  0  0  0  0  0  0  0
    5.1111  -11.4483    0.1128 H   0  0  0  0  0  0  0  0  0  0  0  0
    7.4262   -7.1297    0.9049 H   0  0  0  0  0  0  0  0  0  0  0  0
    3.8665   -9.3353   -0.1184 H   0  0  0  0  0  0  0  0  0  0  0  0
    9.5285   -1.6065    0.2570 H   0  0  0  0  0  0  0  0  0  0  0  0
    1.0018   -5.8317    0.3117 H   0  0  0  0  0  0  0  0  0  0  0  0
    2.3675   -0.4943   -0.4145 H   0  0  0  0  0  0  0  0  0  0  0  0
    4.9886   -4.5099   -0.5728 H   0  0  0  0  0  0  0  0  0  0  0  0
    8.1874   -3.6246    0.9266 H   0  0  0  0  0  0  0  0  0  0  0  0
    8.2680    0.2357   -0.8996 H   0  0  0  0  0  0  0  0  0  0  0  0
    7.3274  -12.5444    0.1146 H   0  0  0  0  0  0  0  0  0  0  0  0
    8.7875  -11.6370    0.5333 H   0  0  0  0  0  0  0  0  0  0  0  0
   -2.0775   -0.1075    0.4047 H   0  0  0  0  0  0  0  0  0  0  0  0
   -1.7474    1.5861    0.1939 H   0  0  0  0  0  0  0  0  0  0  0  0
    4.0655   -1.1415   -1.1620 H   0  0  0  0  0  0  0  0  0  0  0  0
    5.3909   -6.0397    0.4485 H   0  0  0  0  0  0  0  0  0  0  0  0
    1.7261    1.1504   -0.4241 H   0  0  0  0  0  0  0  0  0  0  0  0
    0.4387    2.3091   -0.2772 H   0  0  0  0  0  0  0  0  0  0  0  0
    7.4521  -13.3282    2.1301 H   0  0  0  0  0  0  0  0  0  0  0  0
    6.9666  -11.8548    2.7180 H   0  0  0  0  0  0  0  0  0  0  0  0
    8.5826  -12.2186    2.6233 H   0  0  0  0  0  0  0  0  0  0  0  0
  1  2  2  0  0  0  0
  1 13  1  0  0  0  0
  2 15  1  0  0  0  0
  3  5  2  0  0  0  0
  3 17  1  0  0  0  0
  4  6  1  0  0  0  0
  4 17  2  0  0  0  0
  5 18  1  0  0  0  0
  6 18  2  0  0  0  0
  7 11  1  0  0  0  0
  7 12  2  0  0  0  0
  8 13  2  0  0  0  0
  8 16  1  0  0  0  0
  9 14  1  0  0  0  0
  9 15  2  0  0  0  0
 10 16  2  0  0  0  0
 10 19  1  0  0  0  0
 11 24  2  0  0  0  0
 12 25  1  0  0  0  0
 13 14  1  0  0  0  0
 14 19  2  0  0  0  0
 15 21  1  0  0  0  0
 16 22  1  0  0  0  0
 17 23  1  0  0  0  0
 18 28  1  0  0  0  0
 19 27  1  0  0  0  0
 20 24  1  0  0  0  0
 20 25  2  0  0  0  0
 20 27  1  0  0  0  0
 21 26  1  0  0  0  0
 21 29  2  0  0  0  0
 22 28  1  0  0  0  0
 22 31  2  0  0  0  0
 23 30  1  0  0  0  0
  1 32  1  0  0  0  0
  2 33  1  0  0  0  0
  3 34  1  0  0  0  0
  4 35  1  0  0  0  0
  5 36  1  0  0  0  0
  6 37  1  0  0  0  0
  7 38  1  0  0  0  0
  8 39  1  0  0  0  0
  9 40  1  0  0  0  0
 10 41  1  0  0  0  0
 11 42  1  0  0  0  0
 12 43  1  0  0  0  0
 23 44  1  0  0  0  0
 23 45  1  0  0  0  0
 26 46  1  0  0  0  0
 26 47  1  0  0  0  0
 27 48  1  0  0  0  0
 28 49  1  0  0  0  0
 29 50  1  0  0  0  0
 29 51  1  0  0  0  0
 30 52  1  0  0  0  0
 30 53  1  0  0  0  0
 30 54  1  0  0  0  0
M  CHG  2  29   1  30   1
M  END
