U30
  -OEChem-12290723553D

 32 33  0     0  0  0  0  0  0999 V2000
   -0.5554   -2.0586    0.2858 C   0  0  0  0  0  0  0  0  0  0  0  0
   -0.1143   -3.3819    0.3148 C   0  0  0  0  0  0  0  0  0  0  0  0
    1.6967   -5.0187    0.1067 C   0  0  0  0  0  0  0  0  0  0  0  0
    3.0409   -5.3093   -0.1273 C   0  0  0  0  0  0  0  0  0  0  0  0
    0.3442   -1.0299    0.0226 C   0  0  0  0  0  0  0  0  0  0  0  0
    3.4995   -2.9573   -0.4201 C   0  0  0  0  0  0  0  0  0  0  0  0
    1.2352   -3.6926    0.0810 C   0  0  0  0  0  0  0  0  0  0  0  0
    2.1500   -2.6465   -0.1864 C   0  0  0  0  0  0  0  0  0  0  0  0
    3.9407   -4.2805   -0.3901 C   0  0  0  0  0  0  0  0  0  0  0  0
    1.6885   -1.3204   -0.2122 C   0  0  0  0  0  0  0  0  0  0  0  0
    5.3335   -4.5850   -0.6332 C   0  0  0  0  0  0  0  0  0  0  0  0
    2.2423    1.1091   -0.5309 C   0  0  0  0  0  0  0  0  0  0  0  0
    3.2346    3.2356   -0.9086 C   0  0  0  0  0  0  0  0  0  0  0  0
    5.7671   -5.8563   -0.6073 N   0  0  0  0  0  0  0  0  0  0  0  0
    2.5474   -0.2450   -0.4721 N   0  0  0  0  0  0  0  0  0  0  0  0
    6.2108   -3.6004   -0.8904 N   0  3  0  0  0  0  0  0  0  0  0  0
    1.1468    1.6315   -0.3648 O   0  0  0  0  0  0  0  0  0  0  0  0
    3.3820    1.8141   -0.8129 O   0  0  0  0  0  0  0  0  0  0  0  0
   -1.6018   -1.8322    0.4681 H   0  0  0  0  0  0  0  0  0  0  0  0
   -0.8352   -4.1700    0.5221 H   0  0  0  0  0  0  0  0  0  0  0  0
    1.0114   -5.8386    0.3113 H   0  0  0  0  0  0  0  0  0  0  0  0
    3.3758   -6.3430   -0.1021 H   0  0  0  0  0  0  0  0  0  0  0  0
   -0.0140   -0.0035    0.0032 H   0  0  0  0  0  0  0  0  0  0  0  0
    4.2272   -2.1752   -0.6280 H   0  0  0  0  0  0  0  0  0  0  0  0
    4.2029    3.6886   -1.1354 H   0  0  0  0  0  0  0  0  0  0  0  0
    2.8494    3.6273    0.0361 H   0  0  0  0  0  0  0  0  0  0  0  0
    2.5300    3.4667   -1.7110 H   0  0  0  0  0  0  0  0  0  0  0  0
    5.1256   -6.6166   -0.4111 H   0  0  0  0  0  0  0  0  0  0  0  0
    6.7416   -6.0857   -0.7692 H   0  0  0  0  0  0  0  0  0  0  0  0
    3.5266   -0.4883   -0.6404 H   0  0  0  0  0  0  0  0  0  0  0  0
    5.9073   -2.6336   -0.9221 H   0  0  0  0  0  0  0  0  0  0  0  0
    7.1897   -3.7980   -1.0678 H   0  0  0  0  0  0  0  0  0  0  0  0
  1  2  1  0  0  0  0
  1  5  2  0  0  0  0
  2  7  2  0  0  0  0
  3  4  2  0  0  0  0
  3  7  1  0  0  0  0
  4  9  1  0  0  0  0
  5 10  1  0  0  0  0
  6  8  1  0  0  0  0
  6  9  2  0  0  0  0
  7  8  1  0  0  0  0
  8 10  2  0  0  0  0
  9 11  1  0  0  0  0
 10 15  1  0  0  0  0
 11 14  1  0  0  0  0
 11 16  2  0  0  0  0
 12 15  1  0  0  0  0
 12 17  2  0  0  0  0
 12 18  1  0  0  0  0
 13 18  1  0  0  0  0
  1 19  1  0  0  0  0
  2 20  1  0  0  0  0
  3 21  1  0  0  0  0
  4 22  1  0  0  0  0
  5 23  1  0  0  0  0
  6 24  1  0  0  0  0
 13 25  1  0  0  0  0
 13 26  1  0  0  0  0
 13 27  1  0  0  0  0
 14 28  1  0  0  0  0
 14 29  1  0  0  0  0
 15 30  1  0  0  0  0
 16 31  1  0  0  0  0
 16 32  1  0  0  0  0
M  CHG  1  16   1
M  END
