U31
  -OEChem-12290723553D

 40 42  0     0  0  0  0  0  0999 V2000
    5.4271  -11.2465    1.3031 C   0  0  0  0  0  0  0  0  0  0  0  0
    4.0766  -10.9890    1.5373 C   0  0  0  0  0  0  0  0  0  0  0  0
    6.3078  -10.1909    1.0667 C   0  0  0  0  0  0  0  0  0  0  0  0
   -0.1143   -3.3819    0.3148 C   0  0  0  0  0  0  0  0  0  0  0  0
   -0.5554   -2.0586    0.2858 C   0  0  0  0  0  0  0  0  0  0  0  0
    3.6064   -9.6757    1.5350 C   0  0  0  0  0  0  0  0  0  0  0  0
    5.8377   -8.8775    1.0645 C   0  0  0  0  0  0  0  0  0  0  0  0
    1.6885   -1.3204   -0.2122 C   0  0  0  0  0  0  0  0  0  0  0  0
    1.6967   -5.0187    0.1067 C   0  0  0  0  0  0  0  0  0  0  0  0
    3.9407   -4.2805   -0.3901 C   0  0  0  0  0  0  0  0  0  0  0  0
    1.2352   -3.6926    0.0810 C   0  0  0  0  0  0  0  0  0  0  0  0
    2.1500   -2.6465   -0.1864 C   0  0  0  0  0  0  0  0  0  0  0  0
    0.3442   -1.0299    0.0226 C   0  0  0  0  0  0  0  0  0  0  0  0
    4.4869   -8.6199    1.2988 C   0  0  0  0  0  0  0  0  0  0  0  0
    3.0409   -5.3093   -0.1273 C   0  0  0  0  0  0  0  0  0  0  0  0
    3.4995   -2.9573   -0.4201 C   0  0  0  0  0  0  0  0  0  0  0  0
   -0.1163    0.3408   -0.0078 C   0  0  0  0  0  0  0  0  0  0  0  0
    3.9777   -7.1991    1.2957 C   0  0  0  0  0  0  0  0  0  0  0  0
    3.5136   -6.7236   -0.0952 C   0  0  0  0  0  0  0  0  0  0  0  0
   -1.4090    0.6298    0.2166 N   0  0  0  0  0  0  0  0  0  0  0  0
    0.7433    1.3424   -0.2583 N   0  3  0  0  0  0  0  0  0  0  0  0
    4.8409   -1.6508   -0.7920 Br  0  0  0  0  0  0  0  0  0  0  0  0
    5.7933  -12.2691    1.3043 H   0  0  0  0  0  0  0  0  0  0  0  0
    3.3909  -11.8109    1.7210 H   0  0  0  0  0  0  0  0  0  0  0  0
    7.3594  -10.3917    0.8842 H   0  0  0  0  0  0  0  0  0  0  0  0
   -0.8353   -4.1701    0.5221 H   0  0  0  0  0  0  0  0  0  0  0  0
   -1.6044   -1.8418    0.4697 H   0  0  0  0  0  0  0  0  0  0  0  0
    2.5523   -9.4845    1.7184 H   0  0  0  0  0  0  0  0  0  0  0  0
    6.5310   -8.0612    0.8797 H   0  0  0  0  0  0  0  0  0  0  0  0
    2.3523   -0.4841   -0.4136 H   0  0  0  0  0  0  0  0  0  0  0  0
    1.0035   -5.8330    0.3114 H   0  0  0  0  0  0  0  0  0  0  0  0
    4.9858   -4.5233   -0.5712 H   0  0  0  0  0  0  0  0  0  0  0  0
    3.1426   -7.1323    2.0050 H   0  0  0  0  0  0  0  0  0  0  0  0
    4.7513   -6.5253    1.6859 H   0  0  0  0  0  0  0  0  0  0  0  0
    2.6964   -7.3849   -0.4303 H   0  0  0  0  0  0  0  0  0  0  0  0
    4.3229   -6.8813   -0.8289 H   0  0  0  0  0  0  0  0  0  0  0  0
   -2.0782   -0.1086    0.4035 H   0  0  0  0  0  0  0  0  0  0  0  0
   -1.7488    1.5850    0.1923 H   0  0  0  0  0  0  0  0  0  0  0  0
    1.7251    1.1510   -0.4242 H   0  0  0  0  0  0  0  0  0  0  0  0
    0.4370    2.3091   -0.2782 H   0  0  0  0  0  0  0  0  0  0  0  0
  1  2  1  0  0  0  0
  1  3  2  0  0  0  0
  2  6  2  0  0  0  0
  3  7  1  0  0  0  0
  4  5  2  0  0  0  0
  4 11  1  0  0  0  0
  5 13  1  0  0  0  0
  6 14  1  0  0  0  0
  7 14  2  0  0  0  0
  8 12  1  0  0  0  0
  8 13  2  0  0  0  0
  9 11  2  0  0  0  0
  9 15  1  0  0  0  0
 10 15  2  0  0  0  0
 10 16  1  0  0  0  0
 11 12  1  0  0  0  0
 12 16  2  0  0  0  0
 13 17  1  0  0  0  0
 14 18  1  0  0  0  0
 15 19  1  0  0  0  0
 16 22  1  0  0  0  0
 17 20  1  0  0  0  0
 17 21  2  0  0  0  0
 18 19  1  0  0  0  0
  1 23  1  0  0  0  0
  2 24  1  0  0  0  0
  3 25  1  0  0  0  0
  4 26  1  0  0  0  0
  5 27  1  0  0  0  0
  6 28  1  0  0  0  0
  7 29  1  0  0  0  0
  8 30  1  0  0  0  0
  9 31  1  0  0  0  0
 10 32  1  0  0  0  0
 18 33  1  0  0  0  0
 18 34  1  0  0  0  0
 19 35  1  0  0  0  0
 19 36  1  0  0  0  0
 20 37  1  0  0  0  0
 20 38  1  0  0  0  0
 21 39  1  0  0  0  0
 21 40  1  0  0  0  0
M  CHG  1  21   1
M  END
