U32
  -OEChem-12290723553D

 52 55  0     1  0  0  0  0  0999 V2000
   -0.5517    6.6739   -5.2029 C   0  0  0  0  0  0  0  0  0  0  0  0
   -0.0902    5.7154   -4.2997 C   0  0  0  0  0  0  0  0  0  0  0  0
   -0.2610    7.3180   -2.5003 C   0  0  0  0  0  0  0  0  0  0  0  0
   -0.8619    7.9655   -4.7614 C   0  0  0  0  0  0  0  0  0  0  0  0
    0.0553    6.0368   -2.9514 C   0  0  0  0  0  0  0  0  0  0  0  0
   -0.7118    8.2913   -3.4004 C   0  0  0  0  0  0  0  0  0  0  0  0
   -1.3552    8.9751   -5.7049 C   0  0  0  0  0  0  0  0  0  0  0  0
    2.9609    5.2764    0.7098 C   0  0  0  0  0  0  0  0  0  0  0  0
    1.9625    6.1897    4.1270 C   0  0  0  0  0  0  0  0  0  0  0  0
    3.0232    5.8121    1.9419 C   0  0  0  0  0  0  0  0  0  0  0  0
    1.8646    5.8351    2.8327 C   0  0  0  0  0  0  0  0  0  0  0  0
   -1.4061   10.2700   -5.3533 C   0  0  0  0  0  0  0  0  0  0  0  0
    0.5381    5.0103   -1.9922 C   0  0  0  0  0  0  0  0  0  0  0  0
   -1.8725   11.3098   -6.3011 C   0  0  0  0  0  0  0  0  0  0  0  0
   -1.1182    9.6573   -2.9082 C   0  0  0  0  0  0  0  0  0  0  0  0
    4.3013    6.3778    2.5015 C   0  0  0  0  0  0  0  0  0  0  0  0
    0.5383    5.4213    2.2382 C   0  0  0  0  0  0  0  0  0  0  0  0
   -0.9833   10.7400   -3.9865 C   0  0  0  0  0  0  0  0  0  0  0  0
    0.6985    4.2838    1.2271 C   0  0  0  0  0  0  0  0  0  0  0  0
    4.4007    6.0661    3.9878 C   0  0  0  0  0  0  0  0  0  0  0  0
    1.7332    4.6197    0.1460 C   0  0  1  0  0  0  0  0  0  0  0  0
   -2.7651   10.9536   -7.2107 N   0  0  0  0  0  0  0  0  0  0  0  0
    1.1865    5.4914   -0.8644 N   0  0  0  0  0  0  0  0  0  0  0  0
   -1.3654   12.5255   -6.1749 N   0  3  0  0  0  0  0  0  0  0  0  0
    3.2018    6.6370    4.6790 N   0  3  0  0  0  0  0  0  0  0  0  0
    0.3632    3.8216   -2.2470 O   0  0  0  0  0  0  0  0  0  0  0  0
   -0.6626    6.4016   -6.2499 H   0  0  0  0  0  0  0  0  0  0  0  0
    0.1499    4.7179   -4.6596 H   0  0  0  0  0  0  0  0  0  0  0  0
   -0.1620    7.5624   -1.4450 H   0  0  0  0  0  0  0  0  0  0  0  0
   -1.6492    8.6488   -6.6972 H   0  0  0  0  0  0  0  0  0  0  0  0
    3.8478    5.2782    0.0799 H   0  0  0  0  0  0  0  0  0  0  0  0
    1.0928    6.1904    4.7758 H   0  0  0  0  0  0  0  0  0  0  0  0
   -2.1633    9.5988   -2.5774 H   0  0  0  0  0  0  0  0  0  0  0  0
   -0.5156    9.9465   -2.0389 H   0  0  0  0  0  0  0  0  0  0  0  0
    5.1768    5.9643    1.9872 H   0  0  0  0  0  0  0  0  0  0  0  0
    4.3147    7.4640    2.3445 H   0  0  0  0  0  0  0  0  0  0  0  0
   -0.1614    5.1041    3.0210 H   0  0  0  0  0  0  0  0  0  0  0  0
    0.0881    6.2904    1.7420 H   0  0  0  0  0  0  0  0  0  0  0  0
    0.0620   11.0691   -4.0488 H   0  0  0  0  0  0  0  0  0  0  0  0
   -1.5728   11.6118   -3.6776 H   0  0  0  0  0  0  0  0  0  0  0  0
    1.0231    3.3815    1.7629 H   0  0  0  0  0  0  0  0  0  0  0  0
   -0.2729    4.0509    0.7742 H   0  0  0  0  0  0  0  0  0  0  0  0
    4.4278    4.9901    4.1974 H   0  0  0  0  0  0  0  0  0  0  0  0
    5.2786    6.5401    4.4375 H   0  0  0  0  0  0  0  0  0  0  0  0
    2.0244    3.6938   -0.3655 H   0  0  0  0  0  0  0  0  0  0  0  0
   -3.1191   10.0045   -7.2605 H   0  0  0  0  0  0  0  0  0  0  0  0
   -3.1122   11.6321   -7.8797 H   0  0  0  0  0  0  0  0  0  0  0  0
    1.3487    6.4882   -0.7543 H   0  0  0  0  0  0  0  0  0  0  0  0
   -0.6834   12.7222   -5.4507 H   0  0  0  0  0  0  0  0  0  0  0  0
   -1.6434   13.2808   -6.7921 H   0  0  0  0  0  0  0  0  0  0  0  0
    3.2443    7.6658    4.6418 H   0  0  0  0  0  0  0  0  0  0  0  0
    3.2455    6.3960    5.6793 H   0  0  0  0  0  0  0  0  0  0  0  0
  1  2  1  0  0  0  0
  1  4  2  0  0  0  0
  2  5  2  0  0  0  0
  3  5  1  0  0  0  0
  3  6  2  0  0  0  0
  4  6  1  0  0  0  0
  4  7  1  0  0  0  0
  5 13  1  0  0  0  0
  6 15  1  0  0  0  0
  7 12  2  0  0  0  0
  8 10  2  0  0  0  0
  8 21  1  0  0  0  0
  9 11  2  0  0  0  0
  9 25  1  0  0  0  0
 10 11  1  0  0  0  0
 10 16  1  0  0  0  0
 11 17  1  0  0  0  0
 12 14  1  0  0  0  0
 12 18  1  0  0  0  0
 13 23  1  0  0  0  0
 13 26  2  0  0  0  0
 14 22  1  0  0  0  0
 14 24  2  0  0  0  0
 15 18  1  0  0  0  0
 16 20  1  0  0  0  0
 17 19  1  0  0  0  0
 19 21  1  0  0  0  0
 20 25  1  0  0  0  0
 21 23  1  0  0  0  0
  1 27  1  0  0  0  0
  2 28  1  0  0  0  0
  3 29  1  0  0  0  0
  7 30  1  0  0  0  0
  8 31  1  0  0  0  0
  9 32  1  0  0  0  0
 15 33  1  0  0  0  0
 15 34  1  0  0  0  0
 16 35  1  0  0  0  0
 16 36  1  0  0  0  0
 17 37  1  0  0  0  0
 17 38  1  0  0  0  0
 18 39  1  0  0  0  0
 18 40  1  0  0  0  0
 19 41  1  0  0  0  0
 19 42  1  0  0  0  0
 20 43  1  0  0  0  0
 20 44  1  0  0  0  0
 21 45  1  0  0  0  0
 22 46  1  0  0  0  0
 22 47  1  0  0  0  0
 23 48  1  0  0  0  0
 24 49  1  0  0  0  0
 24 50  1  0  0  0  0
 25 51  1  0  0  0  0
 25 52  1  0  0  0  0
M  CHG  2  24   1  25   1
M  END
