U34
  -OEChem-12290723553D

 57 60  0     1  0  0  0  0  0999 V2000
   -1.3279    6.2080    0.5388 C   0  0  0  0  0  0  0  0  0  0  0  0
   -0.9854    3.3455    2.8772 C   0  0  0  0  0  0  0  0  0  0  0  0
   -1.8127    7.1999    1.3918 C   0  0  0  0  0  0  0  0  0  0  0  0
   -0.5015    2.3533    2.0241 C   0  0  0  0  0  0  0  0  0  0  0  0
    1.2952   -2.0487   -2.3763 C   0  0  0  0  0  0  0  0  0  0  0  0
    0.9784   -0.8687   -1.7068 C   0  0  0  0  0  0  0  0  0  0  0  0
   -1.7523    5.6444    3.2368 C   0  0  0  0  0  0  0  0  0  0  0  0
   -0.5607    3.9092    0.1793 C   0  0  0  0  0  0  0  0  0  0  0  0
   -0.1331   -2.1499    0.0106 C   0  0  0  0  0  0  0  0  0  0  0  0
   -1.2643    4.6337    2.3926 C   0  0  0  0  0  0  0  0  0  0  0  0
   -1.0489    4.9198    1.0235 C   0  0  0  0  0  0  0  0  0  0  0  0
   -2.0244    6.9187    2.7382 C   0  0  0  0  0  0  0  0  0  0  0  0
   -0.2894    2.6348    0.6777 C   0  0  0  0  0  0  0  0  0  0  0  0
    0.8941   -3.2915   -1.8621 C   0  0  0  0  0  0  0  0  0  0  0  0
    0.1979   -3.3511   -0.6373 C   0  0  0  0  0  0  0  0  0  0  0  0
    0.2588   -0.9191   -0.5177 C   0  0  0  0  0  0  0  0  0  0  0  0
   -2.5263    7.9487    3.6203 C   0  0  0  0  0  0  0  0  0  0  0  0
    0.2295    1.5775   -0.2294 C   0  0  0  0  0  0  0  0  0  0  0  0
    1.2645   -4.5467   -2.6134 C   0  0  0  0  0  0  0  0  0  0  0  0
    0.3720   -5.7255   -2.2603 C   0  0  0  0  0  0  0  0  0  0  0  0
   -0.2508   -4.6840   -0.0688 C   0  0  2  0  0  0  0  0  0  0  0  0
    1.5622   -4.7354    1.6672 C   0  0  0  0  0  0  0  0  0  0  0  0
   -0.4529   -6.2126    1.9126 C   0  0  0  0  0  0  0  0  0  0  0  0
    0.0622   -4.8640    1.4178 C   0  0  0  0  0  0  0  0  0  0  0  0
   -2.7910    9.1790    3.1495 N   0  0  0  0  0  0  0  0  0  0  0  0
   -0.0732    0.2623    0.1466 N   0  0  0  0  0  0  0  0  0  0  0  0
   -2.7368    7.6879    4.9215 N   0  3  0  0  0  0  0  0  0  0  0  0
    0.3611   -5.8714   -0.7774 N   0  3  0  0  0  0  0  0  0  0  0  0
    0.8503    1.9336   -1.2253 O   0  0  0  0  0  0  0  0  0  0  0  0
   -1.1701    6.4500   -0.5101 H   0  0  0  0  0  0  0  0  0  0  0  0
   -1.1430    3.1035    3.9263 H   0  0  0  0  0  0  0  0  0  0  0  0
   -2.0219    8.1900    0.9947 H   0  0  0  0  0  0  0  0  0  0  0  0
   -0.2925    1.3637    2.4223 H   0  0  0  0  0  0  0  0  0  0  0  0
    1.8541   -1.9956   -3.3076 H   0  0  0  0  0  0  0  0  0  0  0  0
    1.2930    0.0836   -2.1263 H   0  0  0  0  0  0  0  0  0  0  0  0
   -1.9223    5.4376    4.2921 H   0  0  0  0  0  0  0  0  0  0  0  0
   -0.3904    4.1187   -0.8757 H   0  0  0  0  0  0  0  0  0  0  0  0
   -0.7079   -2.1701    0.9339 H   0  0  0  0  0  0  0  0  0  0  0  0
    1.1957   -4.3696   -3.6934 H   0  0  0  0  0  0  0  0  0  0  0  0
    2.3100   -4.7879   -2.3837 H   0  0  0  0  0  0  0  0  0  0  0  0
   -0.6648   -5.5837   -2.5840 H   0  0  0  0  0  0  0  0  0  0  0  0
    0.7579   -6.6608   -2.6762 H   0  0  0  0  0  0  0  0  0  0  0  0
   -1.3318   -4.7789   -0.2316 H   0  0  0  0  0  0  0  0  0  0  0  0
    2.1242   -5.5080    1.1313 H   0  0  0  0  0  0  0  0  0  0  0  0
    1.9297   -3.7584    1.3360 H   0  0  0  0  0  0  0  0  0  0  0  0
    1.7866   -4.8325    2.7347 H   0  0  0  0  0  0  0  0  0  0  0  0
    0.0307   -7.0425    1.3861 H   0  0  0  0  0  0  0  0  0  0  0  0
   -1.5338   -6.2972    1.7580 H   0  0  0  0  0  0  0  0  0  0  0  0
   -0.2579   -6.3318    2.9837 H   0  0  0  0  0  0  0  0  0  0  0  0
   -0.4511   -4.0714    1.9740 H   0  0  0  0  0  0  0  0  0  0  0  0
   -2.6363    9.4021    2.1727 H   0  0  0  0  0  0  0  0  0  0  0  0
   -3.1371    9.9140    3.7566 H   0  0  0  0  0  0  0  0  0  0  0  0
   -0.6257    0.1513    1.0043 H   0  0  0  0  0  0  0  0  0  0  0  0
   -2.5513    6.7657    5.2998 H   0  0  0  0  0  0  0  0  0  0  0  0
   -3.0931    8.3980    5.5519 H   0  0  0  0  0  0  0  0  0  0  0  0
   -0.1556   -6.7243   -0.5216 H   0  0  0  0  0  0  0  0  0  0  0  0
    1.3259   -6.0186   -0.4478 H   0  0  0  0  0  0  0  0  0  0  0  0
  1  3  2  0  0  0  0
  1 11  1  0  0  0  0
  2  4  2  0  0  0  0
  2 10  1  0  0  0  0
  3 12  1  0  0  0  0
  4 13  1  0  0  0  0
  5  6  2  0  0  0  0
  5 14  1  0  0  0  0
  6 16  1  0  0  0  0
  7 10  1  0  0  0  0
  7 12  2  0  0  0  0
  8 11  1  0  0  0  0
  8 13  2  0  0  0  0
  9 15  1  0  0  0  0
  9 16  2  0  0  0  0
 10 11  2  0  0  0  0
 12 17  1  0  0  0  0
 13 18  1  0  0  0  0
 14 15  2  0  0  0  0
 14 19  1  0  0  0  0
 15 21  1  0  0  0  0
 16 26  1  0  0  0  0
 17 25  1  0  0  0  0
 17 27  2  0  0  0  0
 18 26  1  0  0  0  0
 18 29  2  0  0  0  0
 19 20  1  0  0  0  0
 20 28  1  0  0  0  0
 21 24  1  0  0  0  0
 21 28  1  0  0  0  0
 22 24  1  0  0  0  0
 23 24  1  0  0  0  0
  1 30  1  0  0  0  0
  2 31  1  0  0  0  0
  3 32  1  0  0  0  0
  4 33  1  0  0  0  0
  5 34  1  0  0  0  0
  6 35  1  0  0  0  0
  7 36  1  0  0  0  0
  8 37  1  0  0  0  0
  9 38  1  0  0  0  0
 19 39  1  0  0  0  0
 19 40  1  0  0  0  0
 20 41  1  0  0  0  0
 20 42  1  0  0  0  0
 21 43  1  0  0  0  0
 22 44  1  0  0  0  0
 22 45  1  0  0  0  0
 22 46  1  0  0  0  0
 23 47  1  0  0  0  0
 23 48  1  0  0  0  0
 23 49  1  0  0  0  0
 24 50  1  0  0  0  0
 25 51  1  0  0  0  0
 25 52  1  0  0  0  0
 26 53  1  0  0  0  0
 27 54  1  0  0  0  0
 27 55  1  0  0  0  0
 28 56  1  0  0  0  0
 28 57  1  0  0  0  0
M  CHG  2  27   1  28   1
M  END
